
 *******************************************************************************

         NASA-GLENN CHEMICAL EQUILIBRIUM PROGRAM CEA2, MAY 21, 2004
                   BY  BONNIE MCBRIDE AND SANFORD GORDON
      REFS: NASA RP-1311, PART I, 1994 AND NASA RP-1311, PART II, 1996

 *******************************************************************************



 #                     SAMPLE PROBLEM for AE4262
  
  
 !  Combustion example:
 !
 !     (a)  Combustion or assigned-enthalpy-and-pressure problem (hp).
 !     (b)  Fuels are Jet-A(L)' at 298.15 K. The oxidant is air at 800 K.
 !     (c)  Oxidant-to-fuel weight ratio is 15 (o/f =15).  Weight fractions are
 !          fractions of fuel relative to total fuel and fractions of oxidant
 !          relative to total oxidant.
 !     (d)  Mixture enthalpy is calculated from reactant values given in
 !          thermo.lib. This is because data for these species are given in
 !          thermo.lib and the species names match exactly.
 !     (e)  Many species are omitted from the product data base ('omit' dataset).
 !          Note:  these species names must match those used in thermo.lib.
 !     (f)  Assigned pressures are 1, 10, and 50 bar (p(bar)= 1, 10, 50).
 !     (g)  Mixture properties are to be printed in SI units (siunits).
 !     (h)  Mole fractions > 1.e-10 are to be in e-format (trace=1.e-10).
 !
  
 problem   case=Example-3
     hp   p,bar=30  phi=0.8
 react
   oxid=Air wt=1  t,k=2400.0
   fuel=CH4 wt=.5  t,k=298.15
 omit
   CCN CNC C2N2 C2O C3H4,allene C3H4,propyne C3H4,cyclo- C3 C3H5,allyl
   C3H6,propylene C3H6,cyclo- C3H3,propargyl C3H6O C3H7,n-propyl
   C3H7,i-propyl Jet-A(g) C3O2 C4 C4H2 C3H8O,2propanol C4H4,1,3-cyclo-
   C4H6,butadiene C4H6,2-butyne C3H8O,1propanol C4H8,tr2-butene
   C4H8,isobutene C4H8,cyclo- C4H6,cyclo- (CH3COOH)2 C4H9,n-butyl
   C4H9,i-butyl C4H8,1-butene C4H9,s-butyl C4H9,t-butyl C4H10,isobutane
   C4H8,cis2-buten C4H10,n-butane C4N2 C5 C3H8 C5H6,1,3cyclo-
   C5H8,cyclo- C5H10,1-pentene C10H21,n-decyl C5H10,cyclo- C5H11,pentyl
   C5H11,t-pentyl C12H10,biphenyl C5H12,n-pentane C5H12,i-pentane
   CH3C(CH3)2CH3 C12H9,o-bipheny C6H6 C6H5OH,phenol C6H10,cyclo- C6H2
   C6H12,1-hexene C6H12,cyclo- C6H13,n-hexyl C6H5,phenyl C7H7,benzyl
   C7H8 C7H8O,cresol-mx C6H5O,phenoxy C7H14,1-heptene C7H15,n-heptyl
   C7H16,n-heptane C10H8,azulene C8H8,styrene C8H10,ethylbenz
   C8H16,1-octene C10H8,napthlene C8H17,n-octyl C8H18,isooctane
   C8H18,n-octane C9H19,n-nonyl Jet-A(L) C6H6(L) H2O(s) H2O(L)
 output  short   trace=1.e-12
     plot p t rho h u g s m mw cp gam son
 end




         THERMODYNAMIC EQUILIBRIUM COMBUSTION PROPERTIES AT ASSIGNED

                                   PRESSURES

 CASE = Example-3      

             REACTANT                    WT FRACTION      ENERGY      TEMP
                                          (SEE NOTE)     KJ/KG-MOL      K  
 OXIDANT     Air                          1.0000000     71085.054   2400.000
 FUEL        CH4                          1.0000000    -74600.000    298.150

 O/F=   21.54815  %FUEL=  4.434953  R,EQ.RATIO= 0.800304  PHI,EQ.RATIO= 0.800000

 THERMODYNAMIC PROPERTIES

 P, BAR            30.000
 T, K             3147.82
 RHO, KG/CU M    3.1101 0
 H, KJ/KG         2139.09
 U, KJ/KG         1174.48
 G, KJ/KG        -27501.3
 S, KJ/(KG)(K)     9.4162

 M, (1/n)          27.133
 (dLV/dLP)t      -1.01116
 (dLV/dLT)p        1.2294
 Cp, KJ/(KG)(K)    3.0295
 GAMMAs            1.1651
 SON VEL,M/SEC     1060.1

 MOLE FRACTIONS

 *Ar             8.3835-3
 *C              2.449-12
 *CN             4.483-10
 *CO             2.6186-2
 *CO2            4.9107-2
 COOH            5.5506-7
 *H              4.1782-3
 HCN             8.1322-9
 HCO             2.1646-7
 HNC             1.5885-9
 HNCO            3.3132-8
 HNO             5.4259-6
 HNO2            1.8996-6
 HNO3            4.288-10
 HO2             3.9296-5
 *H2             8.8089-3
 HCHO,formaldehy 2.8665-9
 HCOOH           3.7693-8
 H2O             1.2706-1
 H2O2            2.8463-6
 *N              5.2276-6
 NCO             1.3031-8
 *NH             1.0358-6
 NH2             2.7011-7
 NH3             1.2811-7
 NH2OH           2.478-10
 *NO             2.1874-2
 NO2             2.6162-5
 NO3             2.372-10
 *N2             6.8804-1
 N2H2            6.788-11
 N2O             6.4163-6
 N2O3            2.035-11
 N3              1.053-10
 N3H             2.042-11
 *O              6.3435-3
 *OH             2.4072-2
 *O2             3.5858-2
 O3              6.9210-8

  * THERMODYNAMIC PROPERTIES FITTED TO 20000.K

 NOTE. WEIGHT FRACTION OF FUEL IN TOTAL FUELS AND OF OXIDANT IN TOTAL OXIDANTS



